150
# Fcc Au oriented X=[1-10] Y=[11-2] Z=[111].
Au  0.00000000  0.00000000  0.00000000
Au  0.00000000  3.39580928  4.80239954
Au  0.00000000  1.69790464  2.40119977
Au  1.47042855  4.24476160  2.40119977
Au  1.47042855  0.84895232  4.80239954
Au  1.47042855  2.54685696  0.00000000
Au  2.94085710  0.00000000  0.00000000
Au  2.94085710  3.39580928  4.80239954
Au  2.94085710  1.69790464  2.40119977
Au  4.41128565  4.24476160  2.40119977
Au  4.41128565  0.84895232  4.80239954
Au  4.41128565  2.54685696  0.00000000
Au  5.88171421  0.00000000  0.00000000
Au  5.88171421  3.39580928  4.80239954
Au  5.88171421  1.69790464  2.40119977
Au  7.35214276  4.24476160  2.40119977
Au  7.35214276  0.84895232  4.80239954
Au  7.35214276  2.54685696  0.00000000
Au  8.82257131  0.00000000  0.00000000
Au  8.82257131  3.39580928  4.80239954
Au  8.82257131  1.69790464  2.40119977
Au  10.29299986  4.24476160  2.40119977
Au  10.29299986  0.84895232  4.80239954
Au  10.29299986  2.54685696  0.00000000
Au  11.76342841  0.00000000  0.00000000
Au  11.76342841  3.39580928  4.80239954
Au  11.76342841  1.69790464  2.40119977
Au  13.23385696  4.24476160  2.40119977
Au  13.23385696  0.84895232  4.80239954
Au  13.23385696  2.54685696  0.00000000
Au  0.00000000  5.09371392  0.00000000
Au  0.00000000  8.48952320  4.80239954
Au  0.00000000  6.79161856  2.40119977
Au  1.47042855  9.33847552  2.40119977
Au  1.47042855  5.94266624  4.80239954
Au  1.47042855  7.64057088  0.00000000
Au  2.94085710  5.09371392  0.00000000
Au  2.94085710  8.48952320  4.80239954
Au  2.94085710  6.79161856  2.40119977
Au  4.41128565  9.33847552  2.40119977
Au  4.41128565  5.94266624  4.80239954
Au  4.41128565  7.64057088  0.00000000
Au  5.88171421  5.09371392  0.00000000
Au  5.88171421  8.48952320  4.80239954
Au  5.88171421  6.79161856  2.40119977
Au  7.35214276  9.33847552  2.40119977
Au  7.35214276  5.94266624  4.80239954
Au  7.35214276  7.64057088  0.00000000
Au  8.82257131  5.09371392  0.00000000
Au  8.82257131  8.48952320  4.80239954
Au  8.82257131  6.79161856  2.40119977
Au  10.29299986  9.33847552  2.40119977
Au  10.29299986  5.94266624  4.80239954
Au  10.29299986  7.64057088  0.00000000
Au  11.76342841  5.09371392  0.00000000
Au  11.76342841  8.48952320  4.80239954
Au  11.76342841  6.79161856  2.40119977
Au  13.23385696  9.33847552  2.40119977
Au  13.23385696  5.94266624  4.80239954
Au  13.23385696  7.64057088  0.00000000
Au  0.00000000  10.18742784  0.00000000
Au  0.00000000  13.58323712  4.80239954
Au  0.00000000  11.88533248  2.40119977
Au  1.47042855  14.43218944  2.40119977
Au  1.47042855  11.03638016  4.80239954
Au  1.47042855  12.73428480  0.00000000
Au  2.94085710  10.18742784  0.00000000
Au  2.94085710  13.58323712  4.80239954
Au  2.94085710  11.88533248  2.40119977
Au  4.41128565  14.43218944  2.40119977
Au  4.41128565  11.03638016  4.80239954
Au  4.41128565  12.73428480  0.00000000
Au  5.88171421  10.18742784  0.00000000
Au  5.88171421  13.58323712  4.80239954
Au  5.88171421  11.88533248  2.40119977
Au  7.35214276  14.43218944  2.40119977
Au  7.35214276  11.03638016  4.80239954
Au  7.35214276  12.73428480  0.00000000
Au  8.82257131  10.18742784  0.00000000
Au  8.82257131  13.58323712  4.80239954
Au  8.82257131  11.88533248  2.40119977
Au  10.29299986  14.43218944  2.40119977
Au  10.29299986  11.03638016  4.80239954
Au  10.29299986  12.73428480  0.00000000
Au  11.76342841  10.18742784  0.00000000
Au  11.76342841  13.58323712  4.80239954
Au  11.76342841  11.88533248  2.40119977
Au  13.23385696  14.43218944  2.40119977
Au  13.23385696  11.03638016  4.80239954
Au  13.23385696  12.73428480  0.00000000
Au  0.00000000  15.28114176  0.00000000
Au  0.00000000  18.67695104  4.80239954
Au  0.00000000  16.97904640  2.40119977
Au  1.47042855  19.52590336  2.40119977
Au  1.47042855  16.13009408  4.80239954
Au  1.47042855  17.82799872  0.00000000
Au  2.94085710  15.28114176  0.00000000
Au  2.94085710  18.67695104  4.80239954
Au  2.94085710  16.97904640  2.40119977
Au  4.41128565  19.52590336  2.40119977
Au  4.41128565  16.13009408  4.80239954
Au  4.41128565  17.82799872  0.00000000
Au  5.88171421  15.28114176  0.00000000
Au  5.88171421  18.67695104  4.80239954
Au  5.88171421  16.97904640  2.40119977
Au  7.35214276  19.52590336  2.40119977
Au  7.35214276  16.13009408  4.80239954
Au  7.35214276  17.82799872  0.00000000
Au  8.82257131  15.28114176  0.00000000
Au  8.82257131  18.67695104  4.80239954
Au  8.82257131  16.97904640  2.40119977
Au  10.29299986  19.52590336  2.40119977
Au  10.29299986  16.13009408  4.80239954
Au  10.29299986  17.82799872  0.00000000
Au  11.76342841  15.28114176  0.00000000
Au  11.76342841  18.67695104  4.80239954
Au  11.76342841  16.97904640  2.40119977
Au  13.23385696  19.52590336  2.40119977
Au  13.23385696  16.13009408  4.80239954
Au  13.23385696  17.82799872  0.00000000
Au  0.00000000  20.37485568  0.00000000
Au  0.00000000  23.77066496  4.80239954
Au  0.00000000  22.07276032  2.40119977
Au  1.47042855  24.61961728  2.40119977
Au  1.47042855  21.22380800  4.80239954
Au  1.47042855  22.92171264  0.00000000
Au  2.94085710  20.37485568  0.00000000
Au  2.94085710  23.77066496  4.80239954
Au  2.94085710  22.07276032  2.40119977
Au  4.41128565  24.61961728  2.40119977
Au  4.41128565  21.22380800  4.80239954
Au  4.41128565  22.92171264  0.00000000
Au  5.88171421  20.37485568  0.00000000
Au  5.88171421  23.77066496  4.80239954
Au  5.88171421  22.07276032  2.40119977
Au  7.35214276  24.61961728  2.40119977
Au  7.35214276  21.22380800  4.80239954
Au  7.35214276  22.92171264  0.00000000
Au  8.82257131  20.37485568  0.00000000
Au  8.82257131  23.77066496  4.80239954
Au  8.82257131  22.07276032  2.40119977
Au  10.29299986  24.61961728  2.40119977
Au  10.29299986  21.22380800  4.80239954
Au  10.29299986  22.92171264  0.00000000
Au  11.76342841  20.37485568  0.00000000
Au  11.76342841  23.77066496  4.80239954
Au  11.76342841  22.07276032  2.40119977
Au  13.23385696  24.61961728  2.40119977
Au  13.23385696  21.22380800  4.80239954
Au  13.23385696  22.92171264  0.00000000
